<?xml version="1.0" encoding="UTF-8"?>

<!-- generated on Fri Nov 22 04:48:26 2013 by SUMO jtrrouter Version 0.17.1
<?xml version="1.0" encoding="UTF-8"?>

<configuration xmlns:xsi="http://www.w3.org/2001/XMLSchema-instance" xsi:noNamespaceSchemaLocation="http://sumo.sf.net/xsd/jtrrouterConfiguration.xsd">

    <input>
        <net-file value="/app/Map/westend.net.xml"/>
        <flow-files value="/app/Map/westend.flow.xml"/>
        <turn-ratio-files value="/app/Map/westend.turn.xml"/>
    </input>

    <output>
        <output-file value="/app/Map/westend.rou.xml"/>
    </output>

    <processing>
        <ignore-errors value="true"/>
        <max-edges-factor value="0.002"/>
    </processing>

    <time>
        <begin value="0"/>
        <end value="300"/>
    </time>

</configuration>
-->

<routes xmlns:xsi="http://www.w3.org/2001/XMLSchema-instance" xsi:noNamespaceSchemaLocation="http://sumo.sf.net/xsd/routes_file.xsd">
    <vehicle id="flow_19457616#2.0" type="vehicledist1" depart="0.00">
        <route edges="19457616#2 -19457616#2 19441411 -19481746#0 -19457616#0 -120254976#11 19452301#0 19454055#0 19454055#1 19454055#2 19454055#3"/>
    </vehicle>
    <vehicle id="flow_19457616#7.0" type="vehicledist1" depart="0.00">
        <route edges="19457616#7 19458191#1 19454685#9 19454685#10 19454685#11 19454685#12 19453082#2 19481666#10 -19481666#10 -19481666#9 -19481666#8"/>
    </vehicle>
    <vehicle id="flow_19479457#1.0" type="vehicledist1" depart="0.00">
        <route edges="19479457#1 19479457#2 19479457#3 19452653#0 19452653#1 -19452653#1 19452653#1 -19452653#1 19455516 -19455516 19452653#1"/>
    </vehicle>
    <vehicle id="flow_19479459#3.0" type="vehicledist1" depart="0.00">
        <route edges="19479459#3 19481666#5 19469828#0 -19455807#5 -107398817#3 107398817#3 -19455807#4 -19469110#1 -19469110#0 -19454754#0 19456335#1"/>
    </vehicle>
    <vehicle id="flow_19479801#3.0" type="vehicledist1" depart="0.00">
        <route edges="19479801#3 19479801#4 -19479801#4 -19479801#3 19484163#6 19455519#2 19440910 19458189#1 19457066#1 19475799#6 19468772#0"/>
    </vehicle>
    <vehicle id="flow_19485812#0.0" type="vehicledist1" depart="0.00">
        <route edges="19485812#0 -19481746#3 -19451670#0 -120254976#4 120254976#4 -120254976#4 -120254976#3 19454685#0 -19481746#4 19485812#1 -19485812#1"/>
    </vehicle>
    <vehicle id="flow_19479459#3.1" type="vehicledist1" depart="1.00">
        <route edges="19479459#3 19481666#5 19469828#0 19455807#6 -19457616#12 -19457616#11 -19457616#10 19457616#10 19457616#11 19481666#8 -19481666#8"/>
    </vehicle>
    <vehicle id="flow_19457616#2.1" type="vehicledist1" depart="2.00">
        <route edges="19457616#2 19485346#0 19485346#1 19479457#3 -19456179#1 -19456179#0 19463160#8 19463160#9 19455518 19452653#2 -19458189#3"/>
    </vehicle>
    <vehicle id="flow_19457616#7.1" type="vehicledist1" depart="2.00">
        <route edges="19457616#7 19457616#8 19451647#6 19454685#10 19454685#11 19454685#12 -19453082#1 19480429#0 19454685#11 19454685#12 -19453082#1"/>
    </vehicle>
    <vehicle id="flow_19479457#1.1" type="vehicledist1" depart="2.00">
        <route edges="19479457#1 19478513#0 -19478513#0 -19479457#1 19456052 -19469820#4 19469820#4 -19456052 19456052 19467482 19441411"/>
    </vehicle>
    <vehicle id="flow_19479459#3.2" type="vehicledist1" depart="2.00">
        <route edges="19479459#3 -19481666#4 -19481666#3 19481666#3 -107398817#4 107398817#4 107398817#5 19454755 19479459#3 -19481666#4 -107398817#4"/>
    </vehicle>
    <vehicle id="flow_19479801#3.1" type="vehicledist1" depart="2.00">
        <route edges="19479801#3 19479801#4 19463160#8 -19455519#4 19457066#0 -19458189#1 -19458189#0 -19475799#3 19484167#1 -19484167#1 -19484167#0"/>
    </vehicle>
    <vehicle id="flow_19485812#0.1" type="vehicledist1" depart="2.00">
        <route edges="19485812#0 19485812#1 -60820954 19454685#3 60820953 -60820953 60820953 19485812#3 19457616#4 19457616#5 -19455521"/>
    </vehicle>
    <vehicle id="flow_19479459#3.3" type="vehicledist1" depart="3.00">
        <route edges="19479459#3 -19481666#4 107398817#5 -19468772#1 -19468772#0 -19463179 19451647#0 19454027#0 19459879#6 -19459879#6 -19454027#0"/>
    </vehicle>
    <vehicle id="flow_19457616#2.2" type="vehicledist1" depart="4.00">
        <route edges="19457616#2 -19457616#2 19457616#2 19485346#0 19469820#6 -19469820#6 19469820#6 -19456179#2 19456179#2 -19469820#6 -19469820#5"/>
    </vehicle>
    <vehicle id="flow_19457616#7.2" type="vehicledist1" depart="4.00">
        <route edges="19457616#7 -19458191#0 -19485910#1 19455521 -19457616#5 19456183 -19456183 19457616#5 -19455521 19455521 19457616#6"/>
    </vehicle>
    <vehicle id="flow_19479457#1.2" type="vehicledist1" depart="4.00">
        <route edges="19479457#1 19479457#2 -19479457#2 19479457#2 19479457#3 -19479457#3 -19479457#2 19479457#2 19485346#2 19485346#3 -19485346#3"/>
    </vehicle>
    <vehicle id="flow_19479459#3.4" type="vehicledist1" depart="4.00">
        <route edges="19479459#3 -19481666#4 -107398817#4 19455807#5 19455807#6 19457616#13 -19475750#1 -19475750#0 107398817#3 19455807#5 -19469828#0"/>
    </vehicle>
    <vehicle id="flow_19479801#3.2" type="vehicledist1" depart="4.00">
        <route edges="19479801#3 19456327#1 19455519#3 19457066#0 19458189#2 -19463160#10 -19463160#9 -19455519#4 19457066#0 -19457066#0 19455519#4"/>
    </vehicle>
    <vehicle id="flow_19485812#0.2" type="vehicledist1" depart="4.00">
        <route edges="19485812#0 19485812#1 -19485812#1 -19485812#0 120254976#4 19451670#0 -19451670#0 120254976#5 -120254976#5 19451670#0 -19481746#2"/>
    </vehicle>
    <vehicle id="flow_19479459#3.5" type="vehicledist1" depart="5.00">
        <route edges="19479459#3 -19481666#4 -107398817#4 -19455807#4 19469110#2 -19466848#3 -19466848#2 -19483741 -19455807#2 -19455807#1 19452783#6"/>
    </vehicle>
    <vehicle id="flow_19457616#2.3" type="vehicledist1" depart="6.00">
        <route edges="19457616#2 19485346#0 19469820#6 -19456179#2 -19479457#3 -19485346#1 19469820#6 19456179#3 -19456179#3 -19469820#6 19485346#1"/>
    </vehicle>
    <vehicle id="flow_19457616#7.3" type="vehicledist1" depart="6.00">
        <route edges="19457616#7 19457616#8 19451647#6 19454685#10 19454685#11 19454685#12 -19454685#12 19454685#12 19453082#2 -19453082#2 -19453082#1"/>
    </vehicle>
    <vehicle id="flow_19479457#1.3" type="vehicledist1" depart="6.00">
        <route edges="19479457#1 19479457#2 19479457#3 19452653#0 19452653#1 -19455518 -19463160#9 19463160#9 19463160#10 -19463160#10 19455518"/>
    </vehicle>
    <vehicle id="flow_19479459#3.6" type="vehicledist1" depart="6.00">
        <route edges="19479459#3 19481666#5 19481666#6 19481666#7 -19457616#11 -19474535#1 -19474535#0 19474535#0 -19485912 19450204#3 19453082#0"/>
    </vehicle>
    <vehicle id="flow_19479801#3.3" type="vehicledist1" depart="6.00">
        <route edges="19479801#3 -19456327#0 19485351#0 19485351#1 -19485351#1 -19485351#0 -19485349 -19484163#4 -19484163#3 -19484163#2 19481813#0"/>
    </vehicle>
    <vehicle id="flow_19485812#0.3" type="vehicledist1" depart="6.00">
        <route edges="19485812#0 19485812#1 -19485812#1 -19485812#0 120254976#4 19451670#0 19451670#1 -19451670#1 -19451670#0 19451670#0 -19451670#0"/>
    </vehicle>
    <vehicle id="flow_19479459#3.7" type="vehicledist1" depart="7.00">
        <route edges="19479459#3 -19481666#4 -107398817#4 107398817#4 19481666#4 -19479459#3 -19479459#2 19479459#2 -19454755 -19468772#1 -19468772#0"/>
    </vehicle>
    <vehicle id="flow_19457616#2.4" type="vehicledist1" depart="8.00">
        <route edges="19457616#2 19457616#3 19457616#4 19457616#5 -19455521 19485910#1 19485910#2 -19485910#2 19458191#0 -19458191#0 19485910#2"/>
    </vehicle>
    <vehicle id="flow_19457616#7.4" type="vehicledist1" depart="8.00">
        <route edges="19457616#7 -19457616#7 19455514 19454685#7 19454685#8 -19454685#8 19454685#8 -19458191#1 -19457616#7 19455514 -19455514"/>
    </vehicle>
    <vehicle id="flow_19479457#1.4" type="vehicledist1" depart="8.00">
        <route edges="19479457#1 -19479457#1 19456052 19469820#5 -19485346#0 19457616#3 19457616#4 -19457616#4 -19457616#3 19485346#0 -19485346#0"/>
    </vehicle>
    <vehicle id="flow_19479459#3.8" type="vehicledist1" depart="8.00">
        <route edges="19479459#3 -19481666#4 -107398817#4 107398817#4 -107398817#4 19455807#5 -19469828#0 -19481666#5 -19481666#4 -107398817#4 -107398817#3"/>
    </vehicle>
    <vehicle id="flow_19479801#3.4" type="vehicledist1" depart="8.00">
        <route edges="19479801#3 19456327#1 -19455519#2 19455519#2 -19456327#1 19479801#4 -19479801#4 -19456327#0 -19485349 -19484163#4 -19484163#3"/>
    </vehicle>
    <vehicle id="flow_19485812#0.4" type="vehicledist1" depart="8.00">
        <route edges="19485812#0 -19481746#3 19451670#1 -19451670#1 -19451670#0 120254976#5 120254976#6 19450825 19481746#2 19451670#1 -19451670#1"/>
    </vehicle>
    <vehicle id="flow_19479459#3.9" type="vehicledist1" depart="9.00">
        <route edges="19479459#3 -19479459#3 19479459#3 19481666#5 -19481666#5 -19479459#3 -19454755 -19468772#1 -19468772#0 19459879#5 19459879#6"/>
    </vehicle>
    <vehicle id="flow_19457616#2.5" type="vehicledist1" depart="10.00">
        <route edges="19457616#2 19485346#0 19485346#1 19485346#2 -19485346#2 19485346#2 19485346#3 -19485346#3 19485346#3 -19485346#3 -19472982"/>
    </vehicle>
    <vehicle id="flow_19457616#7.5" type="vehicledist1" depart="10.00">
        <route edges="19457616#7 -19458191#0 19485910#2 -19451647#4 19451647#4 19451647#5 19451647#6 19454685#10 19480429#1 19480429#2 19457671#1"/>
    </vehicle>
    <vehicle id="flow_19479457#1.5" type="vehicledist1" depart="10.00">
        <route edges="19479457#1 19479457#2 19485346#2 -19485346#2 -19479457#2 19478513#0 -19456607#0 19456607#0 -19456607#0 19456607#0 -19478513#0"/>
    </vehicle>
    <vehicle id="flow_19479459#3.10" type="vehicledist1" depart="10.00">
        <route edges="19479459#3 -19481666#4 -19481666#3 19469110#1 -19455807#3 -19484167#6 -19484167#5 -19484167#4 -19484167#3 -19484167#2 -19484167#1"/>
    </vehicle>
    <vehicle id="flow_19479801#3.5" type="vehicledist1" depart="10.00">
        <route edges="19479801#3 -19456327#0 19485351#0 19463160#7 -19463160#7 -19485351#0 19456327#0 19479801#4 -19479801#4 19479801#4 -19463160#7"/>
    </vehicle>
    <vehicle id="flow_19485812#0.5" type="vehicledist1" depart="10.00">
        <route edges="19485812#0 -19481746#3 19451670#1 -19451670#1 -19451670#0 19451670#0 19481746#3 -19481746#3 -19481746#2 -19481746#1 -19481746#0"/>
    </vehicle>
    <vehicle id="flow_19479459#3.11" type="vehicledist1" depart="11.00">
        <route edges="19479459#3 -19479459#3 19479459#3 -19479459#3 -19479459#2 19450204#0 19469825#0 -19469825#0 19469825#0 19469825#1 -19481666#6"/>
    </vehicle>
    <vehicle id="flow_19457616#2.6" type="vehicledist1" depart="12.00">
        <route edges="19457616#2 -19457616#2 19441411 -19441411 19457616#2 19457616#3 -19485812#3 -60820953 19454685#4 -19454685#4 60820953"/>
    </vehicle>
    <vehicle id="flow_19457616#7.6" type="vehicledist1" depart="12.00">
        <route edges="19457616#7 19458191#1 19454685#9 -19451647#6 -19451647#5 -19485910#2 -19485910#1 19485910#1 19485910#2 -19451647#4 -19451647#3"/>
    </vehicle>
    <vehicle id="flow_19479457#1.6" type="vehicledist1" depart="12.00">
        <route edges="19479457#1 -19479457#1 19479457#1 19478513#0 19456607#1 19456607#2 19471214#2 19463160#3 -19463160#3 -19471214#2 -19456607#2"/>
    </vehicle>
    <vehicle id="flow_19479459#3.12" type="vehicledist1" depart="12.00">
        <route edges="19479459#3 -19481666#4 107398817#5 -19468772#1 -19454754#1 -19457066#3 19459879#4 -19463179 19451647#0 19451647#1 19457161#0"/>
    </vehicle>
    <vehicle id="flow_19479801#3.6" type="vehicledist1" depart="12.00">
        <route edges="19479801#3 19456327#1 -19455519#2 -19455519#1 19455519#1 -19455519#1 19484167#0 19475799#3 19446909 -19446909 19446909"/>
    </vehicle>
    <vehicle id="flow_19485812#0.6" type="vehicledist1" depart="12.00">
        <route edges="19485812#0 -19481746#3 -19451670#0 19451670#0 19481746#3 19485812#1 -19485812#1 19481746#4 -19481746#4 -19481746#3 -19481746#2"/>
    </vehicle>
    <vehicle id="flow_19479459#3.13" type="vehicledist1" depart="13.00">
        <route edges="19479459#3 -19479459#3 -19454755 -19468772#1 -19454754#1 19454754#1 -19468772#0 19459879#5 19454027#1 -19454027#1 -19459879#5"/>
    </vehicle>
    <vehicle id="flow_19457616#2.7" type="vehicledist1" depart="14.00">
        <route edges="19457616#2 19485346#0 19485346#1 -19479457#2 19479457#2 -19485346#1 -19469820#5 -19456052 19479457#1 19478513#0 19456607#1"/>
    </vehicle>
    <vehicle id="flow_19457616#7.7" type="vehicledist1" depart="14.00">
        <route edges="19457616#7 -19457616#7 19455514 19454685#7 19454685#8 19454685#9 19454685#10 -19480429#0 19453082#1 -19454685#12 19482025"/>
    </vehicle>
    <vehicle id="flow_19479457#1.7" type="vehicledist1" depart="14.00">
        <route edges="19479457#1 19479457#2 19485346#2 19485346#3 -19485346#3 -19472982 19456179#1 19456179#2 19456179#3 19456179#4 -19485812#3"/>
    </vehicle>
    <vehicle id="flow_19479459#3.14" type="vehicledist1" depart="14.00">
        <route edges="19479459#3 -19481666#4 107398817#5 -19468772#1 -19454754#1 19454754#1 -19468772#0 -19463179 -19484309 -19463160#10 19463160#10"/>
    </vehicle>
    <vehicle id="flow_19479801#3.7" type="vehicledist1" depart="14.00">
        <route edges="19479801#3 19479801#4 19456179#0 19456179#1 19452653#0 19455516 -19455516 -19452653#0 19456179#2 -19456179#2 19452653#0"/>
    </vehicle>
    <vehicle id="flow_19485812#0.7" type="vehicledist1" depart="14.00">
        <route edges="19485812#0 19485812#1 19485812#2 19485812#3 -19456179#4 -19456179#3 -19469820#6 -19485346#0 -19457616#2 19441411 -19479914"/>
    </vehicle>
    <vehicle id="flow_19479459#3.15" type="vehicledist1" depart="15.00">
        <route edges="19479459#3 -19479459#3 -19479459#2 19450204#0 -19450204#0 -19479459#1 19451647#3 19469821 -19450204#1 -19450204#0 -19479459#1"/>
    </vehicle>
    <vehicle id="flow_19457616#2.8" type="vehicledist1" depart="16.00">
        <route edges="19457616#2 19485346#0 19469820#6 -19456179#2 19456179#2 19456179#3 19485910#0 -19485910#0 19456179#4 -19457616#3 -19457616#2"/>
    </vehicle>
    <vehicle id="flow_19457616#7.8" type="vehicledist1" depart="16.00">
        <route edges="19457616#7 19457616#8 -19457616#8 19458191#1 -19454685#8 -19454685#7 -19454685#6 -19454685#5 -19454685#4 60820953 19485812#3"/>
    </vehicle>
    <vehicle id="flow_19479457#1.8" type="vehicledist1" depart="16.00">
        <route edges="19479457#1 -19479457#1 19479457#1 -19479457#1 19456052 -19456052 19456052 -19456052 -19479457#0 -19471214#0 19469820#4"/>
    </vehicle>
    <vehicle id="flow_19479459#3.16" type="vehicledist1" depart="16.00">
        <route edges="19479459#3 -19479459#3 -19479459#2 19479459#2 19479459#3 -19479459#3 -19454755 -107398817#5 19481666#4 -19481666#4 -107398817#4"/>
    </vehicle>
    <vehicle id="flow_19479801#3.8" type="vehicledist1" depart="16.00">
        <route edges="19479801#3 -19456327#0 19485351#0 19485351#1 -19485351#1 -19463160#6 -19463160#5 -19463160#4 -19483208#1 -19456607#1 19456607#1"/>
    </vehicle>
    <vehicle id="flow_19485812#0.8" type="vehicledist1" depart="16.00">
        <route edges="19485812#0 -19481746#3 19451670#1 -19451670#1 -19481746#2 -19481746#1 19481746#1 19481746#2 19481746#3 19485812#1 19485812#2"/>
    </vehicle>
    <vehicle id="flow_19479459#3.17" type="vehicledist1" depart="17.00">
        <route edges="19479459#3 -19479459#3 -19479459#2 19450204#0 -19450204#0 19450204#0 19450204#1 19450204#2 19485912 19474535#1 -19474535#1"/>
    </vehicle>
    <vehicle id="flow_19457616#2.9" type="vehicledist1" depart="18.00">
        <route edges="19457616#2 19485346#0 -19469820#5 19469820#5 -19469820#5 -19456052 -19479457#0 -19471214#0 -19469820#3 19469820#3 19471214#0"/>
    </vehicle>
    <vehicle id="flow_19457616#7.9" type="vehicledist1" depart="18.00">
        <route edges="19457616#7 19457616#8 19457616#9 -19450204#3 -19450204#2 -19450204#1 19469825#0 -19469825#0 19450204#1 19450204#2 -19450204#2"/>
    </vehicle>
    <vehicle id="flow_19479457#1.9" type="vehicledist1" depart="18.00">
        <route edges="19479457#1 19478513#0 -19456607#0 -19485346#3 -19485346#2 -19485346#1 -19469820#5 19469820#5 19469820#6 -19456179#2 19456179#2"/>
    </vehicle>
    <vehicle id="flow_19479459#3.18" type="vehicledist1" depart="18.00">
        <route edges="19479459#3 19481666#5 -19481666#5 19481666#5 -19481666#5 -19479459#3 19479459#3 -19481666#4 -107398817#4 -19455807#4 -19455807#3"/>
    </vehicle>
    <vehicle id="flow_19479801#3.9" type="vehicledist1" depart="18.00">
        <route edges="19479801#3 19456327#1 19440910 19458189#1 19457066#1 19475799#6 19468772#0 -19454754#1 -19454754#0 19456335#1 -19481666#1"/>
    </vehicle>
    <vehicle id="flow_19485812#0.9" type="vehicledist1" depart="18.00">
        <route edges="19485812#0 19481746#4 19454685#1 19454685#2 60820954 19485812#2 19485812#3 19457616#4 -19457616#4 -19457616#3 -19457616#2"/>
    </vehicle>
    <vehicle id="flow_19479459#3.19" type="vehicledist1" depart="19.00">
        <route edges="19479459#3 -19481666#4 -19481666#3 -19481666#2 -19456335#1 19454754#0 19454754#1 19468772#1 -107398817#5 -107398817#4 -107398817#3"/>
    </vehicle>
    <vehicle id="flow_19457616#2.10" type="vehicledist1" depart="20.00">
        <route edges="19457616#2 -19457616#2 -19467482 19469820#5 19485346#1 19485346#2 19485346#3 -19485346#3 -19472982 19456179#1 19452653#0"/>
    </vehicle>
    <vehicle id="flow_19457616#7.10" type="vehicledist1" depart="20.00">
        <route edges="19457616#7 19457616#8 -19451647#5 -19451647#4 -19451647#3 -19451647#2 19451647#2 19479459#1 19479459#2 -19479459#2 -19479459#1"/>
    </vehicle>
    <vehicle id="flow_19479457#1.10" type="vehicledist1" depart="20.00">
        <route edges="19479457#1 19478513#0 19456607#1 19483208#1 -19463160#3 19463160#3 -19483208#1 19456607#2 -19456607#2 19456607#2 -19471214#1"/>
    </vehicle>
    <vehicle id="flow_19479459#3.20" type="vehicledist1" depart="20.00">
        <route edges="19479459#3 -19481666#4 -107398817#4 -107398817#3 -107398817#2 -19466848#4 -19466848#3 -19466848#2 -19466848#1 19466848#1 19466848#2"/>
    </vehicle>
    <vehicle id="flow_19479801#3.10" type="vehicledist1" depart="20.00">
        <route edges="19479801#3 19479801#4 19456179#0 19456179#1 19456179#2 19456179#3 19456179#4 -19485812#3 -19485812#2 -19485812#1 19485812#1"/>
    </vehicle>
    <vehicle id="flow_19485812#0.10" type="vehicledist1" depart="20.00">
        <route edges="19485812#0 -19485812#0 -120254976#3 -120254976#2 19482701#0 -19482701#0 19482701#0 19458807 -19458807 19482701#1 19482701#2"/>
    </vehicle>
    <vehicle id="flow_19479459#3.21" type="vehicledist1" depart="21.00">
        <route edges="19479459#3 -19481666#4 19481666#4 -19479459#3 19479459#3 19481666#5 19469828#0 -19455807#5 107398817#4 -107398817#4 19455807#5"/>
    </vehicle>
    <vehicle id="flow_19457616#2.11" type="vehicledist1" depart="22.00">
        <route edges="19457616#2 19485346#0 19485346#1 19485346#2 19485346#3 19456607#0 -19456607#0 19456607#0 19456607#1 -19483208#0 19483208#0"/>
    </vehicle>
    <vehicle id="flow_19457616#7.11" type="vehicledist1" depart="22.00">
        <route edges="19457616#7 -19458191#0 19485910#2 19451647#5 -19457616#8 19458191#1 19454685#9 19454685#10 -19480429#0 19453082#1 -19454685#12"/>
    </vehicle>
    <vehicle id="flow_19479457#1.11" type="vehicledist1" depart="22.00">
        <route edges="19479457#1 19479457#2 -19485346#1 19469820#6 -19456179#2 -19479457#3 -19485346#1 19485346#1 -19479457#2 19478513#0 -19456607#0"/>
    </vehicle>
    <vehicle id="flow_19479459#3.22" type="vehicledist1" depart="22.00">
        <route edges="19479459#3 -19481666#4 -19481666#3 19469110#1 19469110#2 -19466848#3 19466848#3 19466848#4 107398817#2 19475750#0 19475750#1"/>
    </vehicle>
    <vehicle id="flow_19479801#3.11" type="vehicledist1" depart="22.00">
        <route edges="19479801#3 19456327#1 -19455519#2 -19455519#1 19455519#1 -19484163#6 -19479801#2 19479801#2 19479801#3 19456327#1 -19455519#2"/>
    </vehicle>
    <vehicle id="flow_19485812#0.11" type="vehicledist1" depart="22.00">
        <route edges="19485812#0 19481746#4 -19454685#0 120254976#3 120254976#4 120254976#5 -19451595#1 19451595#1 120254976#6 -120254976#6 -19451595#1"/>
    </vehicle>
    <vehicle id="flow_19479459#3.23" type="vehicledist1" depart="23.00">
        <route edges="19479459#3 -19481666#4 107398817#5 19454755 19479459#3 -19481666#4 107398817#5 -19468772#1 -19454754#1 -19457066#3 19459879#4"/>
    </vehicle>
    <vehicle id="flow_19457616#2.12" type="vehicledist1" depart="24.00">
        <route edges="19457616#2 19485346#0 -19485346#0 19457616#3 19457616#4 19457616#5 -19455521 -19485910#0 19456179#4 -19457616#3 -19457616#2"/>
    </vehicle>
    <vehicle id="flow_19457616#7.12" type="vehicledist1" depart="24.00">
        <route edges="19457616#7 19458191#1 19454685#9 19454685#10 19454685#11 19454685#12 19453082#2 -19481666#9 19481666#9 19481666#10 19457671#0"/>
    </vehicle>
    <vehicle id="flow_19479457#1.12" type="vehicledist1" depart="24.00">
        <route edges="19479457#1 19478513#0 19456607#1 -19483208#0 19483208#0 19483208#1 -19463160#3 19463160#3 -19483208#1 -19483208#0 19483208#0"/>
    </vehicle>
    <vehicle id="flow_19479459#3.24" type="vehicledist1" depart="24.00">
        <route edges="19479459#3 -19481666#4 -107398817#4 -19455807#4 19469110#2 -19469110#2 -19469110#1 19469110#1 19455807#4 19455807#5 19469828#1"/>
    </vehicle>
    <vehicle id="flow_19479801#3.12" type="vehicledist1" depart="24.00">
        <route edges="19479801#3 19456327#1 -19455519#2 -19455519#1 -19455519#0 19455519#0 19484167#0 -19475799#2 -19475799#1 -19475799#0 19475799#0"/>
    </vehicle>
    <vehicle id="flow_19485812#0.12" type="vehicledist1" depart="24.00">
        <route edges="19485812#0 -19481746#3 -19481746#2 -19450825 -120254976#6 -120254976#5 19451670#0 19451670#1 -19451670#1 19451670#1 -19451670#1"/>
    </vehicle>
    <vehicle id="flow_19479459#3.25" type="vehicledist1" depart="25.00">
        <route edges="19479459#3 -19481666#4 -107398817#4 -107398817#3 19475750#0 -19469828#1 19455807#6 19457616#13 -19475750#1 19475750#1 19457616#14"/>
    </vehicle>
    <vehicle id="flow_19457616#2.13" type="vehicledist1" depart="26.00">
        <route edges="19457616#2 19485346#0 19485346#1 -19479457#2 -19479457#1 -19479457#0 19471214#1 19471214#2 19463160#3 -19463160#3 19463160#3"/>
    </vehicle>
    <vehicle id="flow_19457616#7.13" type="vehicledist1" depart="26.00">
        <route edges="19457616#7 -19457616#7 -19457616#6 -19455521 19485910#1 19458191#0 19457616#8 19451647#6 -19454685#9 -19454685#8 19458188#0"/>
    </vehicle>
    <vehicle id="flow_19479457#1.13" type="vehicledist1" depart="26.00">
        <route edges="19479457#1 19479457#2 19485346#2 -19485346#2 19485346#2 19485346#3 -19485346#3 -19472982 19456179#1 19456179#2 -19456179#2"/>
    </vehicle>
    <vehicle id="flow_19479459#3.26" type="vehicledist1" depart="26.00">
        <route edges="19479459#3 -19481666#4 -107398817#4 -107398817#3 107398817#3 107398817#4 19481666#4 -19481666#4 107398817#5 -19468772#1 -19468772#0"/>
    </vehicle>
    <vehicle id="flow_19479801#3.13" type="vehicledist1" depart="26.00">
        <route edges="19479801#3 19456327#1 19455519#3 -19455519#3 19440910 -19458189#0 -19475799#3 -19475799#2 -19475799#1 -19475799#0 -19449325"/>
    </vehicle>
    <vehicle id="flow_19485812#0.13" type="vehicledist1" depart="26.00">
        <route edges="19485812#0 19485812#1 19485812#2 19485812#3 -19456179#4 -19456179#3 19456179#3 19456179#4 -19457616#3 19457616#3 -19456179#4"/>
    </vehicle>
    <vehicle id="flow_19479459#3.27" type="vehicledist1" depart="27.00">
        <route edges="19479459#3 -19481666#4 107398817#5 -107398817#5 -19481666#3 19469110#1 19455807#4 -19455807#4 19469110#2 19466848#4 -107398817#1"/>
    </vehicle>
    <vehicle id="flow_19457616#2.14" type="vehicledist1" depart="28.00">
        <route edges="19457616#2 -19457616#2 -19467482 -19469820#4 -19469820#3 -19469820#2 -19481740#1 19479452#2 -19479452#2 19481740#1 19469820#2"/>
    </vehicle>
    <vehicle id="flow_19457616#7.14" type="vehicledist1" depart="28.00">
        <route edges="19457616#7 19457616#8 19451647#6 19454685#10 19480429#1 19480429#2 -19457671#0 19472030#0 -19453082#3 -19481666#9 19481666#9"/>
    </vehicle>
    <vehicle id="flow_19479457#1.14" type="vehicledist1" depart="28.00">
        <route edges="19479457#1 19478513#0 19478513#1 -19463160#4 -19463160#3 19463160#3 19463160#4 -19478513#1 -19456607#0 -19485346#3 -19472982"/>
    </vehicle>
    <vehicle id="flow_19479459#3.28" type="vehicledist1" depart="28.00">
        <route edges="19479459#3 19481666#5 19469828#0 19455807#6 -19457616#12 -19457616#11 -19457616#10 19453082#0 19453082#1 -19453082#1 19453082#1"/>
    </vehicle>
    <vehicle id="flow_19479801#3.14" type="vehicledist1" depart="28.00">
        <route edges="19479801#3 19456327#1 19455519#3 19457066#0 19457066#1 -19475799#5 19456330 -19459879#2 19456335#0 19456335#1 19481666#2"/>
    </vehicle>
    <vehicle id="flow_19485812#0.14" type="vehicledist1" depart="28.00">
        <route edges="19485812#0 -19481746#3 -19481746#2 19481746#2 -19451670#0 120254976#5 120254976#6 -120254976#6 -120254976#5 19451670#0 19451670#1"/>
    </vehicle>
    <vehicle id="flow_19479459#3.29" type="vehicledist1" depart="29.00">
        <route edges="19479459#3 19481666#5 19469828#0 -19455807#5 107398817#4 19481666#4 19481666#5 19469828#0 -19455807#5 -19455807#4 -19455807#3"/>
    </vehicle>
    <vehicle id="flow_19457616#2.15" type="vehicledist1" depart="30.00">
        <route edges="19457616#2 19485346#0 -19469820#5 19469820#5 -19469820#5 -19456052 19456052 19469820#5 19469820#6 -19456179#2 19452653#0"/>
    </vehicle>
    <vehicle id="flow_19457616#7.15" type="vehicledist1" depart="30.00">
        <route edges="19457616#7 19457616#8 -19457616#8 -19457616#7 19455514 19454685#7 19458188#0 19472381#1 -19451647#8 19451647#8 -19472381#1"/>
    </vehicle>
    <vehicle id="flow_19479457#1.15" type="vehicledist1" depart="30.00">
        <route edges="19479457#1 -19479457#1 19456052 -19469820#4 -19469820#3 -19484295 19484295 19469820#3 19471214#0 19471214#1 -19456607#2"/>
    </vehicle>
    <vehicle id="flow_19479459#3.30" type="vehicledist1" depart="30.00">
        <route edges="19479459#3 -19479459#3 19479459#3 -19481666#4 107398817#5 -107398817#5 -19481666#3 -19481666#2 -19481666#1 -19481666#0 19481666#0"/>
    </vehicle>
    <vehicle id="flow_19479801#3.15" type="vehicledist1" depart="30.00">
        <route edges="19479801#3 19479801#4 19456179#0 19456179#1 19452653#0 19452653#1 -19452653#1 19452653#1 -19452653#1 19452653#1 -19455518"/>
    </vehicle>
    <vehicle id="flow_19485812#0.15" type="vehicledist1" depart="30.00">
        <route edges="19485812#0 19481746#4 -19454685#0 19454685#0 -19454685#0 -120254976#2 19482701#0 -19482701#0 -120254976#1 -107398784#7 -107398784#6"/>
    </vehicle>
    <vehicle id="flow_19479459#3.31" type="vehicledist1" depart="31.00">
        <route edges="19479459#3 -19479459#3 19479459#3 -19481666#4 -107398817#4 19455807#5 -19469828#0 19481666#6 19481666#7 -19457616#11 19457616#11"/>
    </vehicle>
    <vehicle id="flow_19457616#2.16" type="vehicledist1" depart="32.00">
        <route edges="19457616#2 19457616#3 -19456179#4 -19456179#3 -19456179#2 19456179#2 -19469820#6 19469820#6 -19469820#6 -19469820#5 19469820#5"/>
    </vehicle>
    <vehicle id="flow_19457616#7.16" type="vehicledist1" depart="32.00">
        <route edges="19457616#7 19457616#8 -19451647#5 -19485910#2 19485910#2 19451647#5 -19457616#8 19458191#1 -19458191#1 -19458191#0 19485910#2"/>
    </vehicle>
    <vehicle id="flow_19479457#1.16" type="vehicledist1" depart="32.00">
        <route edges="19479457#1 19479457#2 -19479457#2 19479457#2 -19485346#1 19469820#6 -19469820#6 19469820#6 19456179#3 19485910#0 19485910#1"/>
    </vehicle>
    <vehicle id="flow_19479459#3.32" type="vehicledist1" depart="32.00">
        <route edges="19479459#3 -19481666#4 -19481666#3 -19481666#2 -19456335#1 19456335#1 -19481666#1 -19484167#5 -19455457 19455457 19484167#5"/>
    </vehicle>
    <vehicle id="flow_19479801#3.16" type="vehicledist1" depart="32.00">
        <route edges="19479801#3 -19479801#3 -19484163#5 -19484163#4 -19484163#3 19457433#2 19457433#3 19457433#4 19463160#2 -19471214#2 -19471214#1"/>
    </vehicle>
    <vehicle id="flow_19485812#0.16" type="vehicledist1" depart="32.00">
        <route edges="19485812#0 19485812#1 19485812#2 -60820953 19454685#4 -19454685#4 -19454685#3 -19454685#2 19448984#0 -19482701#3 19482701#3"/>
    </vehicle>
    <vehicle id="flow_19479459#3.33" type="vehicledist1" depart="33.00">
        <route edges="19479459#3 19481666#5 -19481666#5 -19479459#3 19479459#3 -19481666#4 -19481666#3 -19469110#0 -19454754#0 19456335#1 -19481666#1"/>
    </vehicle>
    <vehicle id="flow_19457616#2.17" type="vehicledist1" depart="34.00">
        <route edges="19457616#2 -19457616#2 19441411 -19441411 -19467482 19469820#5 19485346#1 19479457#3 19452653#0 19452653#1 -19452653#1"/>
    </vehicle>
    <vehicle id="flow_19457616#7.17" type="vehicledist1" depart="34.00">
        <route edges="19457616#7 19457616#8 -19451647#5 -19451647#4 -19451647#3 19479459#1 19450204#0 19450204#1 -19469821 19451647#4 19451647#5"/>
    </vehicle>
    <vehicle id="flow_19479457#1.17" type="vehicledist1" depart="34.00">
        <route edges="19479457#1 19478513#0 19478513#1 -19463160#4 -19483208#1 -19483208#0 19483208#0 19483208#1 -19463160#3 -19463160#2 -19457433#4"/>
    </vehicle>
    <vehicle id="flow_19479459#3.34" type="vehicledist1" depart="34.00">